cdfs/cdf_3bus.txt
TAPE
 08/19/93 UW ARCHIVE            001.0 1962 W IEEE 14-BUS TEST SYSTEM
BUS DATA FOLLOWS                     03 ITEMS
   1 Bus 1     HV  1  1  3  0.950    0.0      0.0      0.0    232.4   -16.9     0.0  1.060     0.0     0.0     0.0     0.0    1    1
   2 Bus 2     HV  1  1  2  0.950  -1.70    -1.70     0.00      0.0     0.0     0.0  1.045     0.0     0.0     0.0     0.0    2    2
   3 Bus 3     HV  1  1  0  0.980   2.00     2.00      1.0      0.0     0.0     0.0  1.010    0.95   -0.95     0.0     0.0    3    3
-999
BRANCH DATA FOLLOWS                  02 ITEMS
   1    3  1  1 1 0   0.09756   0.12195    0.0000     0     0     0    0 0     0.0     0.0    0.0    0.0    0.0     0.0    0.0     2
   2    3  1  1 1 0   0.03448   0.08621    0.0000     0     0     0    0 0     0.0     0.0    0.0    0.0    0.0     0.0    0.0     2
-999
LOSS ZONES FOLLOWS                    1 ITEMS
  1 IEEE 14-BUS
-99
INTERCHANGE DATA FOLLOWS              1 ITEMS
 1    2 Bus 2     HV     0.0 999.99  AEP-14  IEEE 14-BUS TEST SYSTEM
-9
TIE LINES FOLLOWS                     0 ITEMS
-999
END OF DATA
